Version 4
SHEET 1 880 680
WIRE 80 64 -128 64
WIRE 352 64 144 64
WIRE -128 160 -128 64
WIRE -128 160 -160 160
WIRE -112 160 -128 160
WIRE 16 160 -32 160
WIRE 160 160 16 160
WIRE 288 176 224 176
WIRE 352 176 352 64
WIRE 352 176 288 176
WIRE 16 192 16 160
WIRE 160 192 96 192
WIRE -240 240 -240 160
WIRE 96 256 96 192
WIRE 288 256 288 176
WIRE 288 256 96 256
WIRE 16 304 16 256
WIRE -240 368 -240 320
FLAG 16 304 0
FLAG -240 368 0
SYMBOL cap 144 48 R90
WINDOW 0 0 32 VBottom 2
WINDOW 3 32 32 VTop 2
SYMATTR InstName C1
SYMATTR Value 680nF
SYMBOL cap 0 192 R0
SYMATTR InstName C2
SYMATTR Value 100nF
SYMBOL res -16 144 R90
WINDOW 0 0 56 VBottom 2
WINDOW 3 32 56 VTop 2
SYMATTR InstName R1
SYMATTR Value 18k
SYMBOL res -144 144 R90
WINDOW 0 0 56 VBottom 2
WINDOW 3 32 56 VTop 2
SYMATTR InstName R2
SYMATTR Value 46k
SYMBOL voltage -240 224 R0
WINDOW 123 0 0 Left 0
WINDOW 39 0 0 Left 0
SYMATTR InstName V1
SYMATTR Value PWL(0 0 1u 1)
SYMBOL OpAmps\\opamp 192 240 M180
SYMATTR InstName U1
TEXT -272 440 Left 2 !.tran 120m
TEXT 112 232 Left 2 !.inc opamp.sub
